gem5 Simulator System.  http://gem5.org
gem5 is copyrighted software; use the --copyright option for details.

gem5 compiled Feb 12 2018 23:29:21
gem5 started May 30 2018 10:28:25
gem5 executing on ubuntu, pid 7128
command line: build/X86/gem5.opt configs/example/se.py -c tests/test-progs/ourTest/base_gem5 --caches --l1d_size=1kB --l1d_assoc=4 --num-cpus=1 --cacheline_size=64 --num-l2caches=0 --num-l3caches=0

Global frequency set at 1000000000000 ticks per second
**** REAL SIMULATION ****
Exiting @ tick 86101000 because exiting with last active thread context
gem5 Simulator System.  http://gem5.org
gem5 is copyrighted software; use the --copyright option for details.

gem5 compiled Feb 12 2018 23:29:21
gem5 started May 30 2018 10:28:25
gem5 executing on ubuntu, pid 7131
command line: build/X86/gem5.opt configs/example/se.py -c tests/test-progs/ourTest/test_gem5 --caches --l1d_size=1kB --l1d_assoc=4 --num-cpus=1 --cacheline_size=64 --num-l2caches=0 --num-l3caches=0

Global frequency set at 1000000000000 ticks per second
**** REAL SIMULATION ****
Exiting @ tick 87188500 because exiting with last active thread context
system.cpu.dcache.overall_accesses::total             534
system.cpu.dcache.ReadReq_accesses::total             397
system.cpu.dcache.ReadReq_hits::total             226
system.cpu.dcache.ReadReq_misses::total             171
system.cpu.dcache.WriteReq_accesses::total             137
system.cpu.dcache.WriteReq_hits::total             98
system.cpu.dcache.WriteReq_misses::total             39
